Circuit: * C:\GitHubProjects\sim-racing-instrument-panel\gear-display\LTspice\555_osc.asc

Direct Newton iteration for .op point succeeded.

Date: Mon Apr 17 20:34:50 2023
Total elapsed time: 0.074 seconds.

tnom = 27
temp = 27
method = modified trap
totiter = 15288
traniter = 15263
tranpoints = 3785
accept = 3128
rejected = 657
matrix size = 16
fillins = 2
solver = Normal
Matrix Compiler1: 644 bytes object code size  0.1/0.1/[0.1]
Matrix Compiler2: 990 bytes object code size  0.1/0.1/[0.1]

